data_ATO
#**************************************************************************
#
# CIF taken from the IZA-SC Database of Zeolite Structures
# Ch. Baerlocher and L.B. McCusker
# Database of Zeolite Structures: http://www.iza-structure.org/databases/ 
#
# All data on this site have been placed in the public domain.
# If you use this work in a scientific publication, you are obligated to
# cite its origin.
#
# The atom coordinates and the cell parameters were optimized with DLS76
# assuming a pure SiO2 composition.
#
#**************************************************************************

_cell_length_a                  20.9140(0)
_cell_length_b                  20.9140(0)
_cell_length_c                   5.0610(0)
_cell_angle_alpha               90.0000(0)
_cell_angle_beta                90.0000(0)
_cell_angle_gamma              120.0000(0)

_symmetry_space_group_name_H-M     'R -3 m'
_symmetry_Int_Tables_number         166
_symmetry_cell_setting             trigonal

loop_
_symmetry_equiv_pos_as_xyz
'+x,+y,+z'
'2/3+x,1/3+y,1/3+z'
'1/3+x,2/3+y,2/3+z'
'-y,+x-y,+z'
'2/3-y,1/3+x-y,1/3+z'
'1/3-y,2/3+x-y,2/3+z'
'-x+y,-x,+z'
'2/3-x+y,1/3-x,1/3+z'
'1/3-x+y,2/3-x,2/3+z'
'-y,-x,+z'
'2/3-y,1/3-x,1/3+z'
'1/3-y,2/3-x,2/3+z'
'-x+y,+y,+z'
'2/3-x+y,1/3+y,1/3+z'
'1/3-x+y,2/3+y,2/3+z'
'+x,+x-y,+z'
'2/3+x,1/3+x-y,1/3+z'
'1/3+x,2/3+x-y,2/3+z'
'-x,-y,-z'
'2/3-x,1/3-y,1/3-z'
'1/3-x,2/3-y,2/3-z'
'+y,-x+y,-z'
'2/3+y,1/3-x+y,1/3-z'
'1/3+y,2/3-x+y,2/3-z'
'+x-y,+x,-z'
'2/3+x-y,1/3+x,1/3-z'
'1/3+x-y,2/3+x,2/3-z'
'+y,+x,-z'
'2/3+y,1/3+x,1/3-z'
'1/3+y,2/3+x,2/3-z'
'+x-y,-y,-z'
'2/3+x-y,1/3-y,1/3-z'
'1/3+x-y,2/3-y,2/3-z'
'-x,-x+y,-z'
'2/3-x,1/3-x+y,1/3-z'
'1/3-x,2/3-x+y,2/3-z'

loop_
_atom_site_label
_atom_site_type_symbol
_atom_site_fract_x
_atom_site_fract_y
_atom_site_fract_z
    O1    O     0.6667    0.1347    0.8333
    O2    O     0.5760    0.0000    0.0000
    O3    O     0.5544    0.1089    0.1382
    O4    O     0.6667    0.1006    0.3333
    T1    Si    0.6160    0.0861    0.0763

