data_BPH
#**************************************************************************
#
# CIF taken from the IZA-SC Database of Zeolite Structures
# Ch. Baerlocher and L.B. McCusker
# Database of Zeolite Structures: http://www.iza-structure.org/databases/ 
#
# All data on this site have been placed in the public domain.
# If you use this work in a scientific publication, you are obligated to
# cite its origin.
#
# The atom coordinates and the cell parameters were optimized with DLS76
# assuming a pure SiO2 composition.
#
#**************************************************************************

_cell_length_a                  13.0570(0)
_cell_length_b                  13.0570(0)
_cell_length_c                  12.9690(0)
_cell_angle_alpha               90.0000(0)
_cell_angle_beta                90.0000(0)
_cell_angle_gamma              120.0000(0)

_symmetry_space_group_name_H-M     'P -6 2 m'
_symmetry_Int_Tables_number         189
_symmetry_cell_setting             hexagonal

loop_
_symmetry_equiv_pos_as_xyz
'+x,+y,+z'
'-y,+x-y,+z'
'-x+y,-x,+z'
'+x,+y,-z'
'-y,+x-y,-z'
'-x+y,-x,-z'
'+y,+x,-z'
'+x-y,-y,-z'
'-x,-x+y,-z'
'+y,+x,+z'
'+x-y,-y,+z'
'-x,-x+y,+z'

loop_
_atom_site_label
_atom_site_type_symbol
_atom_site_fract_x
_atom_site_fract_y
_atom_site_fract_z
    O1    O     0.4180    0.2216    0.3073
    O2    O     0.4016    0.4016    0.2364
    O3    O     0.5664    0.3605    0.1655
    O4    O     0.5805    0.4387    0.3548
    O5    O     0.6686    0.6686    0.3647
    O6    O     0.5620    0.7335    0.5000
    O7    O     0.3333    0.6667    0.0000
    T1    Si    0.4916    0.3557    0.2659
    T2    Si    0.5629    0.6967    0.3817
    T3    Si    0.3333    0.6667    0.1239

