data_CAN
#**************************************************************************
#
# CIF taken from the IZA-SC Database of Zeolite Structures
# Ch. Baerlocher and L.B. McCusker
# Database of Zeolite Structures: http://www.iza-structure.org/databases/ 
#
# All data on this site have been placed in the public domain.
# If you use this work in a scientific publication, you are obligated to
# cite its origin.
#
# The atom coordinates and the cell parameters were optimized with DLS76
# assuming a pure SiO2 composition.
#
#**************************************************************************

_cell_length_a                  12.4940(0)
_cell_length_b                  12.4940(0)
_cell_length_c                   5.2540(0)
_cell_angle_alpha               90.0000(0)
_cell_angle_beta                90.0000(0)
_cell_angle_gamma              120.0000(0)

_symmetry_space_group_name_H-M     'P 63/m m c'
_symmetry_Int_Tables_number         194
_symmetry_cell_setting             hexagonal

loop_
_symmetry_equiv_pos_as_xyz
'+x,+y,+z'
'-y,+x-y,+z'
'-x+y,-x,+z'
'-x,-y,1/2+z'
'+y,-x+y,1/2+z'
'+x-y,+x,1/2+z'
'-y,-x,+z'
'-x+y,+y,+z'
'+x,+x-y,+z'
'+y,+x,1/2+z'
'+x-y,-y,1/2+z'
'-x,-x+y,1/2+z'
'-x,-y,-z'
'+y,-x+y,-z'
'+x-y,+x,-z'
'+x,+y,1/2-z'
'-y,+x-y,1/2-z'
'-x+y,-x,1/2-z'
'+y,+x,-z'
'+x-y,-y,-z'
'-x,-x+y,-z'
'-y,-x,1/2-z'
'-x+y,+y,1/2-z'
'+x,+x-y,1/2-z'

loop_
_atom_site_label
_atom_site_type_symbol
_atom_site_fract_x
_atom_site_fract_y
_atom_site_fract_z
    O1    O     0.0000    0.3565    0.5000
    O2    O     0.1986    0.3972    0.7500
    O3    O     0.1299    0.5650    0.7500
    T1    Si    0.0822    0.4190    0.7500

