data_LTN
#**************************************************************************
#
# CIF taken from the IZA-SC Database of Zeolite Structures
# Ch. Baerlocher and L.B. McCusker
# Database of Zeolite Structures: http://www.iza-structure.org/databases/ 
#
# All data on this site have been placed in the public domain.
# If you use this work in a scientific publication, you are obligated to
# cite its origin.
#
# The atom coordinates and the cell parameters were optimized with DLS76
# assuming a pure SiO2 composition.
#
#**************************************************************************

_cell_length_a                  35.6220(0)
_cell_length_b                  35.6220(0)
_cell_length_c                  35.6220(0)
_cell_angle_alpha               90.0000(0)
_cell_angle_beta                90.0000(0)
_cell_angle_gamma               90.0000(0)

_symmetry_space_group_name_H-M     'F d -3 m'
_symmetry_Int_Tables_number         227
_space_group.IT_coordinate_system_code  '2'
_symmetry_cell_setting             cubic

loop_
_symmetry_equiv_pos_as_xyz
'+x,+y,+z'
'+x,1/2+y,1/2+z'
'1/2+x,1/2+y,+z'
'1/2+x,+y,1/2+z'
'+z,+x,+y'
'+z,1/2+x,1/2+y'
'1/2+z,1/2+x,+y'
'1/2+z,+x,1/2+y'
'+y,+z,+x'
'+y,1/2+z,1/2+x'
'1/2+y,1/2+z,+x'
'1/2+y,+z,1/2+x'
'-x,1/4+y,1/4+z'
'-x,3/4+y,3/4+z'
'1/2-x,3/4+y,1/4+z'
'1/2-x,1/4+y,3/4+z'
'-z,1/4+x,1/4+y'
'-z,3/4+x,3/4+y'
'1/2-z,3/4+x,1/4+y'
'1/2-z,1/4+x,3/4+y'
'-y,1/4+z,1/4+x'
'-y,3/4+z,3/4+x'
'1/2-y,3/4+z,1/4+x'
'1/2-y,1/4+z,3/4+x'
'1/4+x,-y,1/4+z'
'1/4+x,1/2-y,3/4+z'
'3/4+x,1/2-y,1/4+z'
'3/4+x,-y,3/4+z'
'1/4+z,-x,1/4+y'
'1/4+z,1/2-x,3/4+y'
'3/4+z,1/2-x,1/4+y'
'3/4+z,-x,3/4+y'
'1/4+y,-z,1/4+x'
'1/4+y,1/2-z,3/4+x'
'3/4+y,1/2-z,1/4+x'
'3/4+y,-z,3/4+x'
'1/4-x,3/4-y,1/2+z'
'1/4-x,1/4-y,+z'
'3/4-x,1/4-y,1/2+z'
'3/4-x,3/4-y,+z'
'1/4-z,3/4-x,1/2+y'
'1/4-z,1/4-x,+y'
'3/4-z,1/4-x,1/2+y'
'3/4-z,3/4-x,+y'
'1/4-y,3/4-z,1/2+x'
'1/4-y,1/4-z,+x'
'3/4-y,1/4-z,1/2+x'
'3/4-y,3/4-z,+x'
'+y,+x,+z'
'+y,1/2+x,1/2+z'
'1/2+y,1/2+x,+z'
'1/2+y,+x,1/2+z'
'+x,+z,+y'
'+x,1/2+z,1/2+y'
'1/2+x,1/2+z,+y'
'1/2+x,+z,1/2+y'
'+z,+y,+x'
'+z,1/2+y,1/2+x'
'1/2+z,1/2+y,+x'
'1/2+z,+y,1/2+x'
'1/4+y,-x,1/4+z'
'1/4+y,1/2-x,3/4+z'
'3/4+y,1/2-x,1/4+z'
'3/4+y,-x,3/4+z'
'1/4+x,-z,1/4+y'
'1/4+x,1/2-z,3/4+y'
'3/4+x,1/2-z,1/4+y'
'3/4+x,-z,3/4+y'
'1/4+z,-y,1/4+x'
'1/4+z,1/2-y,3/4+x'
'3/4+z,1/2-y,1/4+x'
'3/4+z,-y,3/4+x'
'-y,1/4+x,1/4+z'
'-y,3/4+x,3/4+z'
'1/2-y,3/4+x,1/4+z'
'1/2-y,1/4+x,3/4+z'
'-x,1/4+z,1/4+y'
'-x,3/4+z,3/4+y'
'1/2-x,3/4+z,1/4+y'
'1/2-x,1/4+z,3/4+y'
'-z,1/4+y,1/4+x'
'-z,3/4+y,3/4+x'
'1/2-z,3/4+y,1/4+x'
'1/2-z,1/4+y,3/4+x'
'3/4-y,1/4-x,1/2+z'
'3/4-y,3/4-x,+z'
'1/4-y,3/4-x,1/2+z'
'1/4-y,1/4-x,+z'
'3/4-x,1/4-z,1/2+y'
'3/4-x,3/4-z,+y'
'1/4-x,3/4-z,1/2+y'
'1/4-x,1/4-z,+y'
'3/4-z,1/4-y,1/2+x'
'3/4-z,3/4-y,+x'
'1/4-z,3/4-y,1/2+x'
'1/4-z,1/4-y,+x'
'-x,-y,-z'
'-x,1/2-y,1/2-z'
'1/2-x,1/2-y,-z'
'1/2-x,-y,1/2-z'
'-z,-x,-y'
'-z,1/2-x,1/2-y'
'1/2-z,1/2-x,-y'
'1/2-z,-x,1/2-y'
'-y,-z,-x'
'-y,1/2-z,1/2-x'
'1/2-y,1/2-z,-x'
'1/2-y,-z,1/2-x'
'+x,3/4-y,3/4-z'
'+x,1/4-y,1/4-z'
'1/2+x,1/4-y,3/4-z'
'1/2+x,3/4-y,1/4-z'
'+z,3/4-x,3/4-y'
'+z,1/4-x,1/4-y'
'1/2+z,1/4-x,3/4-y'
'1/2+z,3/4-x,1/4-y'
'+y,3/4-z,3/4-x'
'+y,1/4-z,1/4-x'
'1/2+y,1/4-z,3/4-x'
'1/2+y,3/4-z,1/4-x'
'3/4-x,+y,3/4-z'
'3/4-x,1/2+y,1/4-z'
'1/4-x,1/2+y,3/4-z'
'1/4-x,+y,1/4-z'
'3/4-z,+x,3/4-y'
'3/4-z,1/2+x,1/4-y'
'1/4-z,1/2+x,3/4-y'
'1/4-z,+x,1/4-y'
'3/4-y,+z,3/4-x'
'3/4-y,1/2+z,1/4-x'
'1/4-y,1/2+z,3/4-x'
'1/4-y,+z,1/4-x'
'3/4+x,1/4+y,1/2-z'
'3/4+x,3/4+y,-z'
'1/4+x,3/4+y,1/2-z'
'1/4+x,1/4+y,-z'
'3/4+z,1/4+x,1/2-y'
'3/4+z,3/4+x,-y'
'1/4+z,3/4+x,1/2-y'
'1/4+z,1/4+x,-y'
'3/4+y,1/4+z,1/2-x'
'3/4+y,3/4+z,-x'
'1/4+y,3/4+z,1/2-x'
'1/4+y,1/4+z,-x'
'-y,-x,-z'
'-y,1/2-x,1/2-z'
'1/2-y,1/2-x,-z'
'1/2-y,-x,1/2-z'
'-x,-z,-y'
'-x,1/2-z,1/2-y'
'1/2-x,1/2-z,-y'
'1/2-x,-z,1/2-y'
'-z,-y,-x'
'-z,1/2-y,1/2-x'
'1/2-z,1/2-y,-x'
'1/2-z,-y,1/2-x'
'3/4-y,+x,3/4-z'
'3/4-y,1/2+x,1/4-z'
'1/4-y,1/2+x,3/4-z'
'1/4-y,+x,1/4-z'
'3/4-x,+z,3/4-y'
'3/4-x,1/2+z,1/4-y'
'1/4-x,1/2+z,3/4-y'
'1/4-x,+z,1/4-y'
'3/4-z,+y,3/4-x'
'3/4-z,1/2+y,1/4-x'
'1/4-z,1/2+y,3/4-x'
'1/4-z,+y,1/4-x'
'+y,3/4-x,3/4-z'
'+y,1/4-x,1/4-z'
'1/2+y,1/4-x,3/4-z'
'1/2+y,3/4-x,1/4-z'
'+x,3/4-z,3/4-y'
'+x,1/4-z,1/4-y'
'1/2+x,1/4-z,3/4-y'
'1/2+x,3/4-z,1/4-y'
'+z,3/4-y,3/4-x'
'+z,1/4-y,1/4-x'
'1/2+z,1/4-y,3/4-x'
'1/2+z,3/4-y,1/4-x'
'1/4+y,3/4+x,1/2-z'
'1/4+y,1/4+x,-z'
'3/4+y,1/4+x,1/2-z'
'3/4+y,3/4+x,-z'
'1/4+x,3/4+z,1/2-y'
'1/4+x,1/4+z,-y'
'3/4+x,1/4+z,1/2-y'
'3/4+x,3/4+z,-y'
'1/4+z,3/4+y,1/2-x'
'1/4+z,1/4+y,-x'
'3/4+z,1/4+y,1/2-x'
'3/4+z,3/4+y,-x'

loop_
_atom_site_label
_atom_site_type_symbol
_atom_site_fract_x
_atom_site_fract_y
_atom_site_fract_z
    O1    O     0.2129    0.1360    0.2129
    O2    O     0.1598    0.0902    0.2360
    O3    O     0.2118    0.1133    0.2831
    O4    O     0.1604    0.1604    0.2587
    O5    O     0.3430    0.0930    0.2500
    O6    O     0.2851    0.1220    0.2851
    O7    O     0.3270    0.1645    0.2418
    O8    O     0.2804    0.2106    0.3699
    O9    O     0.2995    0.2012    0.2995
   O10    O     0.2374    0.2374    0.3162
   O11    O     0.4351    0.2143    0.3149
   O12    O     0.4237    0.2530    0.2530
   O13    O     0.4295    0.1796    0.2500
    T1    Si    0.1862    0.1250    0.2477
    T2    Si    0.3095    0.1231    0.2471
    T3    Si    0.2647    0.2035    0.3282
    T4    Si    0.4146    0.2144    0.2746

