data_NAB
#**************************************************************************
#
# CIF taken from the IZA-SC Database of Zeolite Structures
# Ch. Baerlocher and L.B. McCusker
# Database of Zeolite Structures: http://www.iza-structure.org/databases/ 
#
# All data on this site have been placed in the public domain.
# If you use this work in a scientific publication, you are obligated to
# cite its origin.
#
# The atom coordinates and the cell parameters were optimized with DLS76
# assuming a pure SiO2 composition.
#
#**************************************************************************

_cell_length_a                   7.1840(0)
_cell_length_b                   7.1840(0)
_cell_length_c                  12.0430(0)
_cell_angle_alpha               90.0000(0)
_cell_angle_beta                90.0000(0)
_cell_angle_gamma               90.0000(0)

_symmetry_space_group_name_H-M     'I -4 m 2'
_symmetry_Int_Tables_number         119
_symmetry_cell_setting             tetragonal

loop_
_symmetry_equiv_pos_as_xyz
'+x,+y,+z'
'1/2+x,1/2+y,1/2+z'
'-y,+x,-z'
'1/2-y,1/2+x,1/2-z'
'-x,-y,+z'
'1/2-x,1/2-y,1/2+z'
'+y,-x,-z'
'1/2+y,1/2-x,1/2-z'
'-x,+y,+z'
'1/2-x,1/2+y,1/2+z'
'+y,+x,-z'
'1/2+y,1/2+x,1/2-z'
'+x,-y,+z'
'1/2+x,1/2-y,1/2+z'
'-y,-x,-z'
'1/2-y,1/2-x,1/2-z'

loop_
_atom_site_label
_atom_site_type_symbol
_atom_site_fract_x
_atom_site_fract_y
_atom_site_fract_z
    O1    O     0.0000    0.1825    0.0778
    O2    O     0.0000    0.0000    0.7364
    O3    O     0.3163    0.8163    0.7500
    T1    Si    0.0000    0.0000    0.0000
    T2    Si    0.2066    0.0000    0.7890

