data_RHO
#**************************************************************************
#
# CIF taken from the IZA-SC Database of Zeolite Structures
# Ch. Baerlocher and L.B. McCusker
# Database of Zeolite Structures: http://www.iza-structure.org/databases/ 
#
# All data on this site have been placed in the public domain.
# If you use this work in a scientific publication, you are obligated to
# cite its origin.
#
# The atom coordinates and the cell parameters were optimized with DLS76
# assuming a pure SiO2 composition.
#
#**************************************************************************

_cell_length_a                  14.9190(0)
_cell_length_b                  14.9190(0)
_cell_length_c                  14.9190(0)
_cell_angle_alpha               90.0000(0)
_cell_angle_beta                90.0000(0)
_cell_angle_gamma               90.0000(0)

_symmetry_space_group_name_H-M     'I m 3 m'
_symmetry_Int_Tables_number         229
_symmetry_cell_setting             cubic

loop_
_symmetry_equiv_pos_as_xyz
'+x,+y,+z'
'1/2+x,1/2+y,1/2+z'
'+z,+x,+y'
'1/2+z,1/2+x,1/2+y'
'+y,+z,+x'
'1/2+y,1/2+z,1/2+x'
'+x,+y,-z'
'1/2+x,1/2+y,1/2-z'
'+z,+x,-y'
'1/2+z,1/2+x,1/2-y'
'+y,+z,-x'
'1/2+y,1/2+z,1/2-x'
'-x,+y,+z'
'1/2-x,1/2+y,1/2+z'
'-z,+x,+y'
'1/2-z,1/2+x,1/2+y'
'-y,+z,+x'
'1/2-y,1/2+z,1/2+x'
'-x,+y,-z'
'1/2-x,1/2+y,1/2-z'
'-z,+x,-y'
'1/2-z,1/2+x,1/2-y'
'-y,+z,-x'
'1/2-y,1/2+z,1/2-x'
'+y,+x,+z'
'1/2+y,1/2+x,1/2+z'
'+x,+z,+y'
'1/2+x,1/2+z,1/2+y'
'+z,+y,+x'
'1/2+z,1/2+y,1/2+x'
'+y,+x,-z'
'1/2+y,1/2+x,1/2-z'
'+x,+z,-y'
'1/2+x,1/2+z,1/2-y'
'+z,+y,-x'
'1/2+z,1/2+y,1/2-x'
'+y,-x,+z'
'1/2+y,1/2-x,1/2+z'
'+x,-z,+y'
'1/2+x,1/2-z,1/2+y'
'+z,-y,+x'
'1/2+z,1/2-y,1/2+x'
'+y,-x,-z'
'1/2+y,1/2-x,1/2-z'
'+x,-z,-y'
'1/2+x,1/2-z,1/2-y'
'+z,-y,-x'
'1/2+z,1/2-y,1/2-x'
'-x,-y,-z'
'1/2-x,1/2-y,1/2-z'
'-z,-x,-y'
'1/2-z,1/2-x,1/2-y'
'-y,-z,-x'
'1/2-y,1/2-z,1/2-x'
'-x,-y,+z'
'1/2-x,1/2-y,1/2+z'
'-z,-x,+y'
'1/2-z,1/2-x,1/2+y'
'-y,-z,+x'
'1/2-y,1/2-z,1/2+x'
'+x,-y,-z'
'1/2+x,1/2-y,1/2-z'
'+z,-x,-y'
'1/2+z,1/2-x,1/2-y'
'+y,-z,-x'
'1/2+y,1/2-z,1/2-x'
'+x,-y,+z'
'1/2+x,1/2-y,1/2+z'
'+z,-x,+y'
'1/2+z,1/2-x,1/2+y'
'+y,-z,+x'
'1/2+y,1/2-z,1/2+x'
'-y,-x,-z'
'1/2-y,1/2-x,1/2-z'
'-x,-z,-y'
'1/2-x,1/2-z,1/2-y'
'-z,-y,-x'
'1/2-z,1/2-y,1/2-x'
'-y,-x,+z'
'1/2-y,1/2-x,1/2+z'
'-x,-z,+y'
'1/2-x,1/2-z,1/2+y'
'-z,-y,+x'
'1/2-z,1/2-y,1/2+x'
'-y,+x,-z'
'1/2-y,1/2+x,1/2-z'
'-x,+z,-y'
'1/2-x,1/2+z,1/2-y'
'-z,+y,-x'
'1/2-z,1/2+y,1/2-x'
'-y,+x,+z'
'1/2-y,1/2+x,1/2+z'
'-x,+z,+y'
'1/2-x,1/2+z,1/2+y'
'-z,+y,+x'
'1/2-z,1/2+y,1/2+x'

loop_
_atom_site_label
_atom_site_type_symbol
_atom_site_fract_x
_atom_site_fract_y
_atom_site_fract_z
    O1    O     0.3344    0.1298    0.3344
    O2    O     0.2754    0.1193    0.5000
    T1    Si    0.2500    0.1037    0.3963

