data_RON
#**************************************************************************
#
# CIF taken from the IZA-SC Database of Zeolite Structures
# Ch. Baerlocher and L.B. McCusker
# Database of Zeolite Structures: http://www.iza-structure.org/databases/ 
#
# All data on this site have been placed in the public domain.
# If you use this work in a scientific publication, you are obligated to
# cite its origin.
#
# The atom coordinates and the cell parameters were optimized with DLS76
# assuming a pure SiO2 composition.
#
#**************************************************************************

_cell_length_a                  18.3300(0)
_cell_length_b                  18.3300(0)
_cell_length_c                   9.1600(0)
_cell_angle_alpha               90.0000(0)
_cell_angle_beta                90.0000(0)
_cell_angle_gamma               90.0000(0)

_symmetry_space_group_name_H-M     'I 4/m c m'
_symmetry_Int_Tables_number         140
_symmetry_cell_setting             tetragonal

loop_
_symmetry_equiv_pos_as_xyz
'+x,+y,+z'
'1/2+x,1/2+y,1/2+z'
'-y,+x,+z'
'1/2-y,1/2+x,1/2+z'
'-x,-y,+z'
'1/2-x,1/2-y,1/2+z'
'+y,-x,+z'
'1/2+y,1/2-x,1/2+z'
'-x,+y,1/2+z'
'1/2-x,1/2+y,+z'
'+y,+x,1/2+z'
'1/2+y,1/2+x,+z'
'+x,-y,1/2+z'
'1/2+x,1/2-y,+z'
'-y,-x,1/2+z'
'1/2-y,1/2-x,+z'
'-x,-y,-z'
'1/2-x,1/2-y,1/2-z'
'+y,-x,-z'
'1/2+y,1/2-x,1/2-z'
'+x,+y,-z'
'1/2+x,1/2+y,1/2-z'
'-y,+x,-z'
'1/2-y,1/2+x,1/2-z'
'+x,-y,1/2-z'
'1/2+x,1/2-y,-z'
'-y,-x,1/2-z'
'1/2-y,1/2-x,-z'
'-x,+y,1/2-z'
'1/2-x,1/2+y,-z'
'+y,+x,1/2-z'
'1/2+y,1/2+x,-z'

loop_
_atom_site_label
_atom_site_type_symbol
_atom_site_fract_x
_atom_site_fract_y
_atom_site_fract_z
    H1    H     0.3240    0.1760    0.1450
    O1    O     0.1353    0.3647    0.0000
    O2    O     0.1641    0.0579    0.1457
    O3    O     0.0579    0.2673    0.1461
    O4    O     0.0451    0.0936    0.0000
    O5    O     0.1725    0.2246    0.0000
    O6    O     0.2935    0.2065    0.1512
    T1    Si    0.2177    0.0000    0.2500
    T1    Si    0.2619    0.2381    0.0000
    T1    Si    0.1044    0.2810    0.0000
    T2    Si    0.1159    0.0408    0.0000

