data_WEI
#**************************************************************************
#
# CIF taken from the IZA-SC Database of Zeolite Structures
# Ch. Baerlocher and L.B. McCusker
# Database of Zeolite Structures: http://www.iza-structure.org/databases/ 
#
# All data on this site have been placed in the public domain.
# If you use this work in a scientific publication, you are obligated to
# cite its origin.
#
# The atom coordinates and the cell parameters were optimized with DLS76
# assuming a pure SiO2 composition.
#
#**************************************************************************

_cell_length_a                  11.8030(0)
_cell_length_b                  10.2780(0)
_cell_length_c                   9.9890(0)
_cell_angle_alpha               90.0000(0)
_cell_angle_beta                90.0000(0)
_cell_angle_gamma               90.0000(0)

_symmetry_space_group_name_H-M     'C c c m'
_symmetry_Int_Tables_number         66
_symmetry_cell_setting             orthorhombic

loop_
_symmetry_equiv_pos_as_xyz
'+x,+y,+z'
'1/2+x,1/2+y,+z'
'-x,+y,1/2+z'
'1/2-x,1/2+y,1/2+z'
'+x,-y,1/2+z'
'1/2+x,1/2-y,1/2+z'
'-x,-y,+z'
'1/2-x,1/2-y,+z'
'-x,-y,-z'
'1/2-x,1/2-y,-z'
'+x,-y,1/2-z'
'1/2+x,1/2-y,1/2-z'
'-x,+y,1/2-z'
'1/2-x,1/2+y,1/2-z'
'+x,+y,-z'
'1/2+x,1/2+y,-z'

loop_
_atom_site_label
_atom_site_type_symbol
_atom_site_fract_x
_atom_site_fract_y
_atom_site_fract_z
    O1    O     0.4210    0.0905    0.1571
    O2    O     0.2425    0.0813    0.0000
    O3    O     0.2293    0.0000    0.2500
    O4    O     0.2500    0.2500    0.1982
    T1    Si    0.2852    0.1059    0.1509
    T2    Si    0.0000    0.5000    0.2500

